/*--------------------------------*- C++ -*----------------------------------*\
| =========                 |                                                 |
| \\      /  F ield         | OpenFOAM: The Open Source CFD Toolbox           |
|  \\    /   O peration     | Version:  2.3.1                                 |
|   \\  /    A nd           | Web:      www.OpenFOAM.org                      |
|    \\/     M anipulation  |                                                 |
\*---------------------------------------------------------------------------*/
FoamFile
{
    version     2.0;
    format      ascii;
    class       dictionary;
    location    "system";
    object      fvSolution;
}
// * * * * * * * * * * * * * * * * * * * * * * * * * * * * * * * * * * * * * //

solvers
{
    "(p|rho)"
    {
        solver          PCG;
        preconditioner  DIC;
      	tolerance       1e-6;
        relTol          0.01;
    }

    "(p|rho)Final"
    {
        $p;
        relTol          0;
    }

    Yi
    {
        solver          PBiCG;
        preconditioner  DILU;
        tolerance       1e-6;
        relTol          0.01;
    }

    YiFinal
    {
	$Yi;
	relTol		0;
    }

    "(U|h|e|k|nuTilda)"
    {
        solver          smoothSolver;
        smoother        symGaussSeidel;
        tolerance       1e-6;
        relTol          0.01;
    }

    "(U|h|e|k|nuTilda)Final"
    {
        $U;
        relTol          0;
    }
}

PIMPLE
{
    momentumPredictor yes;
    nOuterCorrectors 1;
    nCorrectors     1;
    nNonOrthogonalCorrectors 0;
  //  rhoMin          rhoMin [ 1 -3 0 0 0 ] 0.5;
//    rhoMax          rhoMax [ 1 -3 0 0 0 ] 2.0;
}

relaxationFactors
{
    fields
    {
    }
    equations
    {
        //".*"  1;
    }
}

// ************************************************************************* //
